Circuit: * D:\felipe\UFSC\france2\s8b\ASE\EBE_homeworks\homework1\B_part_2.asc

Direct Newton iteration for .op point succeeded.

Date: Thu May 23 19:21:12 2024
Total elapsed time: 0.019 seconds.

tnom = 27
temp = 27
method = trap
totiter = 4
traniter = 0
tranpoints = 0
accept = 0
rejected = 0
matrix size = 18
fillins = 18
solver = Normal
Matrix Compiler1:     100 opcodes
Matrix Compiler2:     163 opcodes
