Circuit: * Z:\home\gosmann\Documents\EBE\EBE_homeworks\homework1\simulations\part2\sim_ex1.asc

Direct Newton iteration for .op point succeeded.

Date: Sat May 25 23:31:03 2024
Total elapsed time: 0.058 seconds.

tnom = 27
temp = 27
method = trap
totiter = 13
traniter = 0
tranpoints = 0
accept = 0
rejected = 0
matrix size = 31
fillins = 45
solver = Normal
Matrix Compiler1:     214 opcodes
Matrix Compiler2: 3.28 KB object code size
