Circuit: * Z:\home\gosmann\Documents\EBE\EBE_homeworks\homework1\simulations\part2\sim_ex2_g_10.asc

Direct Newton iteration for .op point succeeded.

Date: Sat May 25 23:49:09 2024
Total elapsed time: 0.047 seconds.

tnom = 27
temp = 27
method = trap
totiter = 13
traniter = 0
tranpoints = 0
accept = 0
rejected = 0
matrix size = 31
fillins = 37
solver = Normal
Matrix Compiler1:     172 opcodes
Matrix Compiler2: 3.13 KB object code size
