Circuit: * Z:\home\gosmann\Documents\EBE\EBE_homeworks\homework1\simulations\part2\sim_ex2_g_10_non_invert.asc

Direct Newton iteration for .op point succeeded.

Date: Sat May 25 23:59:46 2024
Total elapsed time: 0.044 seconds.

tnom = 27
temp = 27
method = trap
totiter = 13
traniter = 0
tranpoints = 0
accept = 0
rejected = 0
matrix size = 31
fillins = 37
solver = Normal
Matrix Compiler1:     174 opcodes
Matrix Compiler2: 3.16 KB object code size
