Circuit: * C:\users\gosmann\Documents\EBE\EBE_homeworks\homework2\ex1.asc

WARNING: Less than two connections to node +15V.  This node is used by V1.
WARNING: Less than two connections to node -15V.  This node is used by V2.

Date: Sat Jun 08 18:03:13 2024
Total elapsed time: 0.071 seconds.

tnom = 27
temp = 27
method = trap
totiter = 0
traniter = 0
tranpoints = 0
accept = 0
rejected = 0
matrix size = 8
fillins = 0
solver = Normal

