Circuit: * Z:\home\gosmann\Documents\EBE\EBE_homeworks\homework2\sim_part2_ex4_2.asc

Unknown node in .ic card: "c2" -- ignoring
Direct Newton iteration for .op point succeeded.

Date: Sat Jun 08 20:48:08 2024
Total elapsed time: 0.066 seconds.

tnom = 27
temp = 27
method = trap
totiter = 13
traniter = 0
tranpoints = 0
accept = 0
rejected = 0
matrix size = 30
fillins = 36
solver = Normal
Matrix Compiler1:     170 opcodes
Matrix Compiler2: 3.07 KB object code size
