Circuit: * Z:\home\gosmann\Documents\EBE\EBE_homeworks\homework2\sim_part2_ex4.asc

V3: Missing value, assumed 0V @ DC

Date: Sat Jun 08 21:55:46 2024
Total elapsed time: 0.137 seconds.

tnom = 27
temp = 27
method = trap
totiter = 2031
traniter = 0
tranpoints = 0
accept = 0
rejected = 0
matrix size = 35
fillins = 39
solver = Normal
Matrix Compiler1: 3.35 KB object code size  1.0/0.5/[0.4]
Matrix Compiler2: 3.48 KB object code size  0.5/0.7/[0.4]

