Circuit: * Z:\home\gosmann\Documents\EBE\EBE_homeworks\homework2\sim_part2_ex6.asc

Direct Newton iteration for .op point succeeded.

Date: Sat Jun 08 22:03:42 2024
Total elapsed time: 0.459 seconds.

tnom = 27
temp = 27
method = modified trap
totiter = 46291
traniter = 46276
tranpoints = 18867
accept = 15723
rejected = 3144
matrix size = 32
fillins = 56
solver = Normal
Matrix Compiler1: 4.37 KB object code size  1.7/1.3/[0.6]
Matrix Compiler2: 3.60 KB object code size  0.8/1.3/[0.7]

