Circuit: * Z:\home\gosmann\Documents\EBE\EBE_homeworks\homework2\sim_part2_RC_ex1.asc

Unknown node in .ic card: "c2" -- ignoring
WARNING: Less than two connections to node +15V.  This node is used by V1.
WARNING: Less than two connections to node -15V.  This node is used by V2.

Date: Sat Jun 08 21:03:40 2024
Total elapsed time: 0.075 seconds.

tnom = 27
temp = 27
method = trap
totiter = 0
traniter = 0
tranpoints = 0
accept = 0
rejected = 0
matrix size = 9
fillins = 0
solver = Normal

