Circuit: * Z:\home\gosmann\Documents\EBE\EBE_homeworks\homework2\sim_part2_RC_ex4.asc


Date: Sat Jun 08 21:30:30 2024
Total elapsed time: 0.114 seconds.

tnom = 27
temp = 27
method = trap
totiter = 864
traniter = 0
tranpoints = 0
accept = 0
rejected = 0
matrix size = 34
fillins = 34
solver = Normal
Matrix Compiler1: 3.01 KB object code size  1.0/0.7/[0.3]
Matrix Compiler2: 3.33 KB object code size  0.5/0.7/[0.4]

