Circuit: * Z:\home\gosmann\Documents\EBE\EBE_homeworks\homework2\sim_part2_ex2.asc

Direct Newton iteration for .op point succeeded.

Date: Sat Jun 08 20:32:52 2024
Total elapsed time: 0.232 seconds.

tnom = 27
temp = 27
method = modified trap
totiter = 23861
traniter = 23848
tranpoints = 8013
accept = 5360
rejected = 2653
matrix size = 31
fillins = 54
solver = Normal
Matrix Compiler1: 4.25 KB object code size  1.1/0.7/[0.4]
Matrix Compiler2: 3.49 KB object code size  0.5/0.7/[0.5]

