Circuit: * C:\users\gosmann\Documents\EBE\EBE_homeworks\homework1\simulations\opamp_part1\ex3\sim_ex3.asc

Direct Newton iteration for .op point succeeded.

Date: Tue May 21 02:01:25 2024
Total elapsed time: 0.093 seconds.

tnom = 27
temp = 27
method = modified trap
totiter = 2122
traniter = 2082
tranpoints = 1042
accept = 1042
rejected = 0
matrix size = 7
fillins = 1
solver = Normal
Matrix Compiler1: 322 bytes object code size  0.2/0.1/[0.1]
Matrix Compiler2: 597 bytes object code size  0.2/0.2/[0.1]

